@<TRIPOS>MOLECULE
MOL
   25    25     1     0     0
SMALL
rc


@<TRIPOS>ATOM
      1 H1          -5.1230    -0.5540     1.2870 HC         1 MOL       0.136256
      2 C1          -4.1640    -1.0530     1.2760 CT         1 MOL      -0.476523
      3 H2          -4.3400    -2.1210     1.2030 HC         1 MOL       0.136256
      4 H3          -3.6380    -0.8530     2.2030 HC         1 MOL       0.136256
      5 C2          -3.3930    -0.5990     0.0540 C          1 MOL       0.663641
      6 O1          -3.9440    -0.2970    -0.9690 O          1 MOL      -0.595886
      7 H4           3.6650     1.3150     0.8020 HA         1 MOL       0.139242
      8 H5           1.7980     2.9040     0.7460 HA         1 MOL       0.174842
      9 C3           2.6980     1.0020     0.4550 CA         1 MOL      -0.044338
     10 C4           1.6350     1.8920     0.4200 CA         1 MOL      -0.280983
     11 Cl1          3.8100    -1.4370     0.0610 Cl         1 MOL      -0.116856
     12 H6          -0.4220     3.4730     0.3590 HC         1 MOL       0.097667
     13 C5           2.4940    -0.2920     0.0320 CA         1 MOL      -0.054913
     14 C6           0.3770     1.5160    -0.0250 CA         1 MOL       0.136694
     15 H7          -1.0780     2.7150    -1.0760 HC         1 MOL       0.097667
     16 C7          -0.7460     2.5280    -0.0590 CT         1 MOL      -0.282162
     17 C8           1.2490    -0.6970    -0.4190 CA         1 MOL      -0.052987
     18 C9           0.1870     0.1940    -0.4490 CA         1 MOL      -0.043577
     19 H8           1.1120    -1.7100    -0.7500 HA         1 MOL       0.126058
     20 H9          -1.6070     2.1880     0.5040 HC         1 MOL       0.097667
     21 H10         -1.6500     0.4260    -1.5570 H1         1 MOL       0.147142
     22 C10         -1.1620    -0.3020    -0.9280 CT         1 MOL      -0.183992
     23 H11         -1.0290    -1.1970    -1.5270 H1         1 MOL       0.147142
     24 N1          -2.0450    -0.5680     0.1940 N          1 MOL      -0.368570
     25 H12         -1.6400    -0.9460     1.0200 H          1 MOL       0.264258
@<TRIPOS>BOND
     1     1     2 1   
     2     2     3 1   
     3     2     4 1   
     4     2     5 1   
     5     5     6 2   
     6     5    24 1   
     7     7     9 1   
     8     8    10 1   
     9     9    10 1   
    10     9    13 2   
    11    10    14 2   
    12    11    13 1   
    13    12    16 1   
    14    13    17 1   
    15    14    16 1   
    16    14    18 1   
    17    15    16 1   
    18    16    20 1   
    19    17    18 2   
    20    17    19 1   
    21    18    22 1   
    22    21    22 1   
    23    22    23 1   
    24    22    24 1   
    25    24    25 1   
@<TRIPOS>SUBSTRUCTURE
     1 MOL         1 TEMP              0 ****  ****    0 ROOT
