@<TRIPOS>MOLECULE
I6A
   16    16     1     0     0
SMALL
No Charge or Current Charge


@<TRIPOS>ATOM
      1 H28         10.7950   -10.4370    24.1730 HA         2 I6A       0.146890
      2 H27         11.1070   -12.4170    22.7110 HA         2 I6A       0.144662
      3 C28         11.5490   -10.4210    23.3990 CA         2 I6A      -0.091663
      4 C27         11.7280   -11.5440    22.5690 CA         2 I6A      -0.079635
      5 CL2         12.1950    -7.9330    24.2820 Cl         2 I6A      -0.100077
      6 C29         12.3660    -9.2890    23.2270 CA         2 I6A      -0.011578
      7 C26         12.7060   -11.5350    21.5530 CA         2 I6A      -0.122233
      8 CL1         12.8570   -12.9330    20.5530 Cl         2 I6A      -0.073050
      9 C30         13.3430    -9.2750    22.2110 CA         2 I6A      -0.149436
     10 C25         13.5220   -10.3910    21.3620 CA         2 I6A       0.234953
     11 H30         13.9670    -8.4030    22.0920 HA         2 I6A       0.142602
     12 H242        14.2590   -10.9050    19.3860 H1         2 I6A       0.152350
     13 C24         14.5610   -10.3070    20.2470 CT         2 I6A      -0.262176
     14 H241        14.5620    -9.2770    19.8990 H1         2 I6A       0.152350
     15 N23         15.9280   -10.6140    20.6660 N          2 I6A      -0.347818
     16 HN2         16.4240    -9.9020    21.2010 H          2 I6A       0.263859
@<TRIPOS>BOND
     1     1     3 1   
     2     2     4 1   
     3     3     4 1   
     4     3     6 2   
     5     4     7 2   
     6     5     6 1   
     7     6     9 1   
     8     7     8 1   
     9     7    10 1   
    10     9    10 2   
    11     9    11 1   
    12    10    13 1   
    13    12    13 1   
    14    13    14 1   
    15    13    15 1   
    16    15    16 1   
@<TRIPOS>SUBSTRUCTURE
     1 I6A         1 TEMP              0 ****  ****    0 ROOT
