@<TRIPOS>MOLECULE
MOL
   22    22     1     0     0
SMALL
rc


@<TRIPOS>ATOM
      1 H1          -5.0060    -1.6450     1.1000 HC         1 MOL       0.142043
      2 C1          -4.0830    -1.1360     1.3390 CT         1 MOL      -0.490526
      3 H2          -3.5380    -1.7010     2.0860 HC         1 MOL       0.142043
      4 H3          -4.3270    -0.1640     1.7570 HC         1 MOL       0.142043
      5 C2          -3.2930    -0.9330     0.0640 C          1 MOL       0.634699
      6 O1          -3.8250    -0.7980    -1.0030 O          1 MOL      -0.570303
      7 H4           3.6690     1.3390     0.7570 HA         1 MOL       0.146890
      8 H5           1.6910     2.8090     0.6620 HA         1 MOL       0.144662
      9 C3           2.7230     0.9550     0.4270 CA         1 MOL      -0.091663
     10 C4           1.6120     1.7780     0.3740 CA         1 MOL      -0.079635
     11 Cl1          3.9800    -1.4180     0.1030 Cl         1 MOL      -0.100077
     12 C5           2.5950    -0.3650     0.0450 CA         1 MOL      -0.011578
     13 C6           0.3950     1.2790    -0.0530 CA         1 MOL      -0.122233
     14 Cl2         -0.9620     2.3700    -0.1040 Cl         1 MOL      -0.073050
     15 C7           1.3790    -0.8630    -0.3840 CA         1 MOL      -0.149436
     16 C8           0.2540    -0.0510    -0.4420 CA         1 MOL       0.234953
     17 H6           1.3050    -1.8920    -0.6810 HA         1 MOL       0.142602
     18 H7          -1.5630     0.0280    -1.5900 H1         1 MOL       0.152350
     19 C9          -1.0620    -0.6380    -0.9060 CT         1 MOL      -0.262176
     20 H8          -0.8660    -1.5610    -1.4410 H1         1 MOL       0.152350
     21 N1          -1.9480    -0.8760     0.2160 N          1 MOL      -0.347818
     22 H9          -1.5480    -1.0540     1.1080 H          1 MOL       0.263859
@<TRIPOS>BOND
     1     1     2 1   
     2     2     3 1   
     3     2     4 1   
     4     2     5 1   
     5     5     6 2   
     6     5    21 1   
     7     7     9 1   
     8     8    10 1   
     9     9    10 1   
    10     9    12 2   
    11    10    13 2   
    12    11    12 1   
    13    12    15 1   
    14    13    14 1   
    15    13    16 1   
    16    15    16 2   
    17    15    17 1   
    18    16    19 1   
    19    18    19 1   
    20    19    20 1   
    21    19    21 1   
    22    21    22 1   
@<TRIPOS>SUBSTRUCTURE
     1 MOL         1 TEMP              0 ****  ****    0 ROOT
