@<TRIPOS>MOLECULE
MOL
   22    22     1     0     0
SMALL
rc


@<TRIPOS>ATOM
      1 H1          -4.3950     0.6790     0.8040 HC         1 MOL       0.110921
      2 C1          -3.4650     0.2680     1.1700 CT         1 MOL      -0.386024
      3 H2          -3.6540    -0.6720     1.6740 HC         1 MOL       0.110921
      4 H3          -3.0450     0.9650     1.8890 HC         1 MOL       0.110921
      5 C2          -2.5040     0.1260     0.0090 C          1 MOL       0.623079
      6 O1          -2.5480     0.8610    -0.9410 O          1 MOL      -0.569818
      7 H4           4.1280     1.1530     0.7530 HA         1 MOL       0.128916
      8 H5           3.8590    -1.2960     0.7860 HA         1 MOL       0.142229
      9 C3           3.2020     0.7060     0.4380 CA         1 MOL      -0.107583
     10 C4           3.0510    -0.6680     0.4560 CA         1 MOL      -0.165197
     11 H6           2.2670     2.5760    -0.0160 HA         1 MOL       0.142229
     12 C5           2.1530     1.5070     0.0060 CA         1 MOL      -0.165197
     13 C6           1.8540    -1.2400     0.0470 CA         1 MOL      -0.186633
     14 H7           1.7470    -2.3120     0.0600 HA         1 MOL       0.155404
     15 C7           0.9620     0.9350    -0.4020 CA         1 MOL      -0.186633
     16 C8           0.8000    -0.4490    -0.3840 CA         1 MOL       0.119633
     17 H8           0.1520     1.5560    -0.7410 HA         1 MOL       0.155404
     18 H9          -0.8390    -0.6500    -1.7570 H1         1 MOL       0.087186
     19 H10         -0.3840    -2.1370    -0.9630 H1         1 MOL       0.087186
     20 C9          -0.5130    -1.0710    -0.8190 CT         1 MOL      -0.077699
     21 N1          -1.5940    -0.8710     0.1300 N          1 MOL      -0.422162
     22 H11         -1.5330    -1.3460     1.0010 H          1 MOL       0.292918
@<TRIPOS>BOND
     1     1     2 1   
     2     2     3 1   
     3     2     4 1   
     4     2     5 1   
     5     5     6 2   
     6     5    21 1   
     7     7     9 1   
     8     8    10 1   
     9     9    10 1   
    10     9    12 2   
    11    10    13 2   
    12    11    12 1   
    13    12    15 1   
    14    13    14 1   
    15    13    16 1   
    16    15    16 2   
    17    15    17 1   
    18    16    20 1   
    19    18    20 1   
    20    19    20 1   
    21    20    21 1   
    22    21    22 1   
@<TRIPOS>SUBSTRUCTURE
     1 MOL         1 TEMP              0 ****  ****    0 ROOT
