@<TRIPOS>MOLECULE
I1B
   16    16     1     0     0
SMALL
No Charge or Current Charge


@<TRIPOS>ATOM
      1 H28         10.8470   -10.6550    24.0060 HA         2 I1B       0.124634
      2 H27         11.3300   -12.5740    22.5020 HA         2 I1B       0.163940
      3 C28         11.6200   -10.5700    23.2550 CA         2 I1B      -0.012332
      4 C27         11.8940   -11.6570    22.4010 CA         2 I1B      -0.222566
      5 CL1         12.1060    -8.0760    24.2430 Cl         2 I1B      -0.119672
      6 C29         12.3720    -9.3840    23.1460 CA         2 I1B      -0.053677
      7 C26         12.9050   -11.5530    21.4230 CA         2 I1B      -0.151870
      8 H26         13.1150   -12.3910    20.7740 HA         2 I1B       0.178146
      9 C30         13.3740    -9.2780    22.1610 CA         2 I1B      -0.093533
     10 C25         13.6410   -10.3570    21.2920 CA         2 I1B       0.069571
     11 H30         13.9510    -8.3700    22.0900 HA         2 I1B       0.138128
     12 H242        14.4050   -10.7640    19.3190 H1         2 I1B       0.113698
     13 C24         14.7040   -10.2160    20.2150 CT         2 I1B      -0.123553
     14 H241        14.7420    -9.1640    19.9390 H1         2 I1B       0.113698
     15 N23         16.0420   -10.5940    20.6500 N          2 I1B      -0.434056
     16 HN2         16.5620    -9.8920    21.1770 H          2 I1B       0.309445
@<TRIPOS>BOND
     1     1     3 1   
     2     2     4 1   
     3     3     4 1   
     4     3     6 2   
     5     4     7 2   
     6     5     6 1   
     7     6     9 1   
     8     7     8 1   
     9     7    10 1   
    10     9    10 2   
    11     9    11 1   
    12    10    13 1   
    13    12    13 1   
    14    13    14 1   
    15    13    15 1   
    16    15    16 1   
@<TRIPOS>SUBSTRUCTURE
     1 I1B         1 TEMP              0 ****  ****    0 ROOT
