@<TRIPOS>MOLECULE
L44
   41    42     1     0     0
SMALL
No Charge or Current Charge


@<TRIPOS>ATOM
      1 C1          -1.9610    21.5500   -27.3300 ca      1201 L44      -0.216145
      2 C2          -1.2940    22.4120   -28.1960 ca      1201 L44      -0.009513
      3 C3          -1.9550    22.9520   -29.2940 ca      1201 L44      -0.144035
      4 C4          -3.3000    22.6220   -29.5430 ca      1201 L44       0.190882
      5 C5          -3.9690    21.7590   -28.6530 ca      1201 L44      -0.144035
      6 C6          -3.2920    21.2290   -27.5620 ca      1201 L44      -0.009513
      7 CL1         -5.6400    21.3530   -28.9190 cl      1201 L44      -0.059672
      8 C8          -4.0400    23.1520   -30.7110 c       1201 L44       0.728191
      9 O9          -4.2270    22.4200   -31.6680 o       1201 L44      -0.568622
     10 N10         -4.5130    24.4120   -30.6480 n       1201 L44      -0.749400
     11 C11         -5.2870    25.1110   -31.5800 ca      1201 L44       0.748578
     12 C12         -5.9620    24.5480   -32.6810 ca      1201 L44      -0.587660
     13 C13         -6.7810    25.3610   -33.4590 ca      1201 L44       0.299778
     14 N14         -6.9230    26.6540   -33.1830 nb      1201 L44      -0.729318
     15 C15         -6.2980    27.2320   -32.1580 ca      1201 L44       1.026835
     16 C16         -5.5070    26.4570   -31.3070 ca      1201 L44      -0.894093
     17 N17         -6.5390    28.5830   -31.8840 n       1201 L44      -0.888514
     18 C18         -5.7130    29.4450   -31.2330 c       1201 L44       0.802966
     19 O19         -4.6160    29.1220   -30.8100 o       1201 L44      -0.646104
     20 C20         -6.2320    30.8470   -31.0310 c3      1201 L44       0.428831
     21 CL2         -1.1120    24.0510   -30.3320 cl      1201 L44      -0.059672
     22 C40         -6.9630    31.4000   -32.2180 c3      1201 L44      -0.498540
     23 C30         -5.0890    31.7550   -30.6830 c3      1201 L44      -0.498540
     24 C50         -7.1340    30.8760   -29.8330 c3      1201 L44      -0.498540
     25 H1          -1.4440    21.1320   -26.4790 ha      1201 L44       0.171708
     26 H2          -0.2590    22.6640   -28.0160 ha      1201 L44       0.133575
     27 H6          -3.8110    20.5610   -26.8910 ha      1201 L44       0.133575
     28 HN10        -4.3170    24.9850   -29.8390 hn      1201 L44       0.350014
     29 H12         -5.8400    23.4990   -32.9090 ha      1201 L44       0.255287
     30 H13         -7.3120    24.9440   -34.3020 h4      1201 L44       0.105560
     31 H16         -5.0640    26.9090   -30.4310 ha      1201 L44       0.341780
     32 HN17        -7.4050    29.0130   -32.1800 hn      1201 L44       0.359312
     33 H301        -5.4620    32.7690   -30.5370 hc      1201 L44       0.125005
     34 H302        -4.6140    31.4060   -29.7660 hc      1201 L44       0.125005
     35 H303        -4.3610    31.7490   -31.4940 hc      1201 L44       0.125005
     36 H401        -7.3050    32.4110   -31.9960 hc      1201 L44       0.125005
     37 H402        -6.2940    31.4240   -33.0790 hc      1201 L44       0.125005
     38 H403        -7.8220    30.7680   -32.4440 hc      1201 L44       0.125005
     39 H501        -7.5100    31.8880   -29.6850 hc      1201 L44       0.125005
     40 H502        -7.9720    30.1980   -29.9920 hc      1201 L44       0.125005
     41 H503        -6.5770    30.5630   -28.9500 hc      1201 L44       0.125005
@<TRIPOS>BOND
     1     1     2 ar  
     2     1     6 ar  
     3     1    25 1   
     4     2     3 ar  
     5     2    26 1   
     6     3     4 ar  
     7     3    21 1   
     8     4     5 ar  
     9     4     8 1   
    10     5     6 ar  
    11     5     7 1   
    12     6    27 1   
    13     8     9 2   
    14     8    10 1   
    15    10    11 1   
    16    10    28 1   
    17    11    12 ar  
    18    11    16 ar  
    19    12    13 ar  
    20    12    29 1   
    21    13    14 ar  
    22    13    30 1   
    23    14    15 ar  
    24    15    16 ar  
    25    15    17 1   
    26    16    31 1   
    27    17    18 1   
    28    17    32 1   
    29    18    19 2   
    30    18    20 1   
    31    20    22 1   
    32    20    23 1   
    33    20    24 1   
    34    22    36 1   
    35    22    37 1   
    36    22    38 1   
    37    23    33 1   
    38    23    34 1   
    39    23    35 1   
    40    24    39 1   
    41    24    40 1   
    42    24    41 1   
@<TRIPOS>SUBSTRUCTURE
     1 L44         1 TEMP              0 ****  ****    0 ROOT
