@<TRIPOS>MOLECULE
L31
   32    33     1     0     0
SMALL
No Charge or Current Charge


@<TRIPOS>ATOM
      1 C1          -1.9610    21.5500   -27.3300 ca      1201 L31      -0.214884
      2 C2          -1.2940    22.4120   -28.1960 ca      1201 L31      -0.013062
      3 C3          -1.9550    22.9520   -29.2940 ca      1201 L31      -0.138243
      4 C4          -3.3000    22.6220   -29.5430 ca      1201 L31       0.180985
      5 C5          -3.9690    21.7590   -28.6530 ca      1201 L31      -0.138243
      6 C6          -3.2920    21.2290   -27.5620 ca      1201 L31      -0.013062
      7 CL1         -5.6400    21.3530   -28.9190 cl      1201 L31      -0.060225
      8 C8          -4.0400    23.1520   -30.7110 c       1201 L31       0.742271
      9 O9          -4.2270    22.4200   -31.6680 o       1201 L31      -0.570629
     10 N10         -4.5130    24.4120   -30.6480 n       1201 L31      -0.781679
     11 C11         -5.2870    25.1110   -31.5800 ca      1201 L31       0.799895
     12 C12         -5.9620    24.5480   -32.6810 ca      1201 L31      -0.636446
     13 C13         -6.7810    25.3610   -33.4590 ca      1201 L31       0.353602
     14 N14         -6.9230    26.6540   -33.1830 nb      1201 L31      -0.751187
     15 C15         -6.2980    27.2320   -32.1580 ca      1201 L31       0.996516
     16 C16         -5.5070    26.4570   -31.3070 ca      1201 L31      -0.909315
     17 N17         -6.5390    28.5830   -31.8840 n       1201 L31      -0.848874
     18 C18         -5.7130    29.4450   -31.2330 c       1201 L31       0.925609
     19 O19         -4.6160    29.1220   -30.8100 o       1201 L31      -0.650809
     20 C20         -6.2320    30.8470   -31.0310 c3      1201 L31      -0.507568
     21 CL2         -1.1120    24.0510   -30.3320 cl      1201 L31      -0.060225
     22 H21         -7.3050    30.9410   -31.1620 hc      1201 L31       0.140876
     23 H1          -1.4440    21.1320   -26.4790 ha      1201 L31       0.172432
     24 H2          -0.2590    22.6640   -28.0160 ha      1201 L31       0.134651
     25 H6          -3.8110    20.5610   -26.8910 ha      1201 L31       0.134651
     26 HN10        -4.3170    24.9850   -29.8390 hn      1201 L31       0.357810
     27 H12         -5.8400    23.4990   -32.9090 ha      1201 L31       0.264719
     28 H13         -7.3120    24.9440   -34.3020 h4      1201 L31       0.093341
     29 H16         -5.0640    26.9090   -30.4310 ha      1201 L31       0.342612
     30 HN17        -7.4050    29.0130   -32.1800 hn      1201 L31       0.372730
     31 H201        -5.7230    31.5230   -31.7180 hc      1201 L31       0.140876
     32 H202        -5.9580    31.1940   -30.0350 hc      1201 L31       0.140876
@<TRIPOS>BOND
     1     1     2 ar  
     2     1     6 ar  
     3     1    23 1   
     4     2     3 ar  
     5     2    24 1   
     6     3     4 ar  
     7     3    21 1   
     8     4     5 ar  
     9     4     8 1   
    10     5     6 ar  
    11     5     7 1   
    12     6    25 1   
    13     8     9 2   
    14     8    10 1   
    15    10    11 1   
    16    10    26 1   
    17    11    12 ar  
    18    11    16 ar  
    19    12    13 ar  
    20    12    27 1   
    21    13    14 ar  
    22    13    28 1   
    23    14    15 ar  
    24    15    16 ar  
    25    15    17 1   
    26    16    29 1   
    27    17    18 1   
    28    17    30 1   
    29    18    19 2   
    30    18    20 1   
    31    20    22 1   
    32    20    31 1   
    33    20    32 1   
@<TRIPOS>SUBSTRUCTURE
     1 L31         1 TEMP              0 ****  ****    0 ROOT
