@<TRIPOS>MOLECULE
MOL
   22    22     1     0     0
SMALL
rc


@<TRIPOS>ATOM
      1 H1           6.2290    -1.2490    -0.8900 HC         1 MOL       0.168987
      2 C1           5.2210    -1.1110    -1.2730 CT         1 MOL      -0.587845
      3 H2           4.8130    -2.0760    -1.5660 HC         1 MOL       0.168987
      4 H3           5.2820    -0.4660    -2.1460 HC         1 MOL       0.168987
      5 C2           4.3810    -0.4170    -0.2070 C          1 MOL       0.784633
      6 O1           4.7010     0.7000     0.2450 O          1 MOL      -0.703750
      7 H4          -1.7500     2.3470    -0.8280 HA         1 MOL       0.091950
      8 H5           0.5070     3.3640    -0.6390 HA         1 MOL       0.176468
      9 C3          -0.9370     1.7800    -0.4130 CA         1 MOL       0.132789
     10 C4           0.3490     2.3520    -0.3030 CA         1 MOL      -0.309575
     11 I1          -3.0680    -0.4260    -0.1130 I          1 MOL      -0.065604
     12 C5          -1.1320     0.4610     0.0340 CA         1 MOL      -0.256635
     13 C6           1.4180     1.6200     0.2410 CA         1 MOL      -0.074966
     14 H6           2.3960     2.0600     0.3200 HA         1 MOL       0.172087
     15 C7          -0.0700    -0.2850     0.5820 CA         1 MOL       0.019003
     16 C8           1.2140     0.2920     0.6830 CA         1 MOL       0.045662
     17 H7          -0.2370    -1.2910     0.9280 HA         1 MOL       0.115643
     18 H8           2.9790     0.1090     1.9070 H1         1 MOL       0.140040
     19 C9           2.3740    -0.5170     1.2640 CT         1 MOL      -0.199219
     20 H9           1.9920    -1.3430     1.8560 H1         1 MOL       0.140040
     21 N1           3.2680    -1.0800     0.2340 N          1 MOL      -0.441087
     22 H10          3.0170    -1.9470    -0.1900 H          1 MOL       0.313403
@<TRIPOS>BOND
     1     1     2 1   
     2     2     3 1   
     3     2     4 1   
     4     2     5 1   
     5     5     6 2   
     6     5    21 1   
     7     7     9 1   
     8     8    10 1   
     9     9    10 1   
    10     9    12 2   
    11    10    13 2   
    12    11    12 1   
    13    12    15 1   
    14    13    14 1   
    15    13    16 1   
    16    15    16 2   
    17    15    17 1   
    18    16    19 1   
    19    18    19 1   
    20    19    20 1   
    21    19    21 1   
    22    21    22 1   
@<TRIPOS>SUBSTRUCTURE
     1 MOL         1 TEMP              0 ****  ****    0 ROOT
