@<TRIPOS>MOLECULE
MOL
   22    22     1     0     0
SMALL
rc


@<TRIPOS>ATOM
      1 H1          -5.2230    -0.8600     1.0880 HC         1 MOL       0.131919
      2 C1          -4.2090    -0.5860     1.3410 CT         1 MOL      -0.452252
      3 H2          -3.8070    -1.2960     2.0550 HC         1 MOL       0.131919
      4 H3          -4.2260     0.3950     1.8060 HC         1 MOL       0.131919
      5 C2          -3.3930    -0.5060     0.0680 C          1 MOL       0.633952
      6 O1          -3.8830    -0.2010    -0.9830 O          1 MOL      -0.577458
      7 H4           3.4830     1.6230     0.6810 HA         1 MOL       0.144627
      8 H5           1.3960     2.9660     0.5040 HA         1 MOL       0.195194
      9 C3           2.5630     1.1660     0.3690 CA         1 MOL      -0.015720
     10 C4           1.4030     1.9180     0.2730 CA         1 MOL      -0.308770
     11 Cl1          3.9750    -1.1360     0.1720 Cl         1 MOL      -0.106431
     12 C5           2.5230    -0.1780     0.0560 CA         1 MOL      -0.078347
     13 C6           0.2390     1.3060    -0.1300 CA         1 MOL       0.272500
     14 F1          -0.8650     2.0380    -0.2230 F          1 MOL      -0.171128
     15 C7           1.3420    -0.7780    -0.3500 CA         1 MOL      -0.064007
     16 C8           0.1730    -0.0410    -0.4500 CA         1 MOL      -0.050652
     17 H6           1.3360    -1.8250    -0.5920 HA         1 MOL       0.145007
     18 H7          -1.6030    -0.0870    -1.6560 H1         1 MOL       0.115569
     19 C9          -1.1300    -0.6750    -0.8840 CT         1 MOL      -0.066754
     20 H8          -0.9260    -1.6560    -1.3000 H1         1 MOL       0.115569
     21 N1          -2.0700    -0.7690     0.2130 N          1 MOL      -0.407601
     22 H9          -1.7280    -1.0590     1.1000 H          1 MOL       0.280944
@<TRIPOS>BOND
     1     1     2 1   
     2     2     3 1   
     3     2     4 1   
     4     2     5 1   
     5     5     6 2   
     6     5    21 1   
     7     7     9 1   
     8     8    10 1   
     9     9    10 1   
    10     9    12 2   
    11    10    13 2   
    12    11    12 1   
    13    12    15 1   
    14    13    14 1   
    15    13    16 1   
    16    15    16 2   
    17    15    17 1   
    18    16    19 1   
    19    18    19 1   
    20    19    20 1   
    21    19    21 1   
    22    21    22 1   
@<TRIPOS>SUBSTRUCTURE
     1 MOL         1 TEMP              0 ****  ****    0 ROOT
