@<TRIPOS>MOLECULE
I1D
   16    16     1     0     0
SMALL
No Charge or Current Charge


@<TRIPOS>ATOM
      1 H28         10.8490   -10.6820    23.9820 HA         2 I1D       0.091950
      2 H27         11.3350   -12.5940    22.4700 HA         2 I1D       0.176468
      3 C28         11.6220   -10.5920    23.2310 CA         2 I1D       0.132789
      4 C27         11.8980   -11.6760    22.3730 CA         2 I1D      -0.309575
      5 I1          12.0630    -7.8310    24.4710 I          2 I1D      -0.065604
      6 C29         12.3740    -9.4060    23.1280 CA         2 I1D      -0.256635
      7 C26         12.9110   -11.5670    21.3980 CA         2 I1D      -0.074966
      8 H26         13.1240   -12.4030    20.7460 HA         2 I1D       0.172087
      9 C30         13.3770    -9.2950    22.1450 CA         2 I1D       0.019003
     10 C25         13.6470   -10.3700    21.2730 CA         2 I1D       0.045662
     11 H30         13.9550    -8.3870    22.0790 HA         2 I1D       0.115643
     12 H242        14.4210   -10.7710    19.3040 H1         2 I1D       0.140040
     13 C24         14.7150   -10.2250    20.2030 CT         2 I1D      -0.199219
     14 H241        14.7520    -9.1720    19.9320 H1         2 I1D       0.140040
     15 N23         16.0510   -10.6000    20.6440 N          2 I1D      -0.441087
     16 HN2         16.5670    -9.8980    21.1740 H          2 I1D       0.313403
@<TRIPOS>BOND
     1     1     3 1   
     2     2     4 1   
     3     3     4 1   
     4     3     6 2   
     5     4     7 2   
     6     5     6 1   
     7     6     9 1   
     8     7     8 1   
     9     7    10 1   
    10     9    10 2   
    11     9    11 1   
    12    10    13 1   
    13    12    13 1   
    14    13    14 1   
    15    13    15 1   
    16    15    16 1   
@<TRIPOS>SUBSTRUCTURE
     1 I1D         1 TEMP              0 ****  ****    0 ROOT
