@<TRIPOS>MOLECULE
I3A
   19    19     1     0     0
SMALL
No Charge or Current Charge


@<TRIPOS>ATOM
      1 H6          10.3770    -9.6710    23.8410 HC         2 I3A       0.100668
      2 H28         10.8640   -12.2040    23.3200 HA         2 I3A       0.156552
      3 C13         11.4640    -9.6050    23.8700 CT         2 I3A      -0.358051
      4 C28         11.6480   -11.8210    22.6820 CA         2 I3A      -0.262191
      5 H4          11.7630    -8.5640    23.7530 HC         2 I3A       0.100668
      6 H7          11.7850    -9.9410    24.8550 HC         2 I3A       0.100668
      7 H27         11.9200   -13.6990    21.6580 HA         2 I3A       0.145513
      8 C29         12.0810   -10.4870    22.8070 CA         2 I3A       0.249665
      9 C27         12.2470   -12.6710    21.7350 CA         2 I3A      -0.128467
     10 C30         13.1050    -9.9980    21.9690 CA         2 I3A      -0.335227
     11 C26         13.2760   -12.1870    20.9050 CA         2 I3A      -0.234550
     12 H30         13.4440    -8.9780    22.0680 HA         2 I3A       0.173276
     13 C25         13.7050   -10.8480    21.0150 CA         2 I3A       0.128318
     14 H26         13.7420   -12.8460    20.1860 HA         2 I3A       0.181915
     15 H242        14.6470   -10.7190    19.1010 H1         2 I3A       0.088313
     16 H241        14.7240    -9.2450    20.0430 H1         2 I3A       0.088313
     17 C24         14.8060   -10.3300    20.1080 CT         2 I3A      -0.039359
     18 N23         16.1460   -10.6550    20.5740 N          2 I3A      -0.468075
     19 HN2         16.6120    -9.9540    21.1480 H          2 I3A       0.312050
@<TRIPOS>BOND
     1     1     3 1   
     2     2     4 1   
     3     3     5 1   
     4     3     6 1   
     5     3     8 1   
     6     4     8 1   
     7     4     9 2   
     8     7     9 1   
     9     8    10 2   
    10     9    11 1   
    11    10    12 1   
    12    10    13 1   
    13    11    13 2   
    14    11    14 1   
    15    13    17 1   
    16    15    17 1   
    17    16    17 1   
    18    17    18 1   
    19    18    19 1   
@<TRIPOS>SUBSTRUCTURE
     1 I3A         1 TEMP              0 ****  ****    0 ROOT
