@<TRIPOS>MOLECULE
MOL
   28    28     1     0     0
SMALL
rc


@<TRIPOS>ATOM
      1 H1          -4.8530    -0.1460     1.2750 HC         1 MOL       0.140371
      2 C1          -3.9430    -0.7280     1.2990 CT         1 MOL      -0.500846
      3 H2          -4.2170    -1.7790     1.2880 HC         1 MOL       0.140371
      4 H3          -3.4030    -0.5220     2.2150 HC         1 MOL       0.140371
      5 C2          -3.1360    -0.4220     0.0540 C          1 MOL       0.685713
      6 O1          -3.6630    -0.2030    -1.0030 O          1 MOL      -0.605980
      7 H4           4.6970    -1.5770     0.5190 HC         1 MOL       0.096327
      8 H5           4.0920     0.7270     0.8100 HA         1 MOL       0.172862
      9 C3           3.7530    -1.8950     0.0910 CT         1 MOL      -0.330867
     10 C4           3.0960     0.5200     0.4580 CA         1 MOL      -0.284787
     11 H6           2.4600     2.5360     0.7210 HA         1 MOL       0.164652
     12 H7           3.9520    -2.2710    -0.9080 HC         1 MOL       0.096327
     13 H8           3.3830    -2.7260     0.6840 HC         1 MOL       0.096327
     14 C5           2.7570    -0.7590     0.0590 CA         1 MOL       0.233206
     15 C6           2.1650     1.5500     0.4080 CA         1 MOL      -0.214715
     16 H9           0.3320     3.3890     0.3210 HC         1 MOL       0.081955
     17 C7           1.4550    -0.9710    -0.3880 CA         1 MOL      -0.299089
     18 C8           0.8710     1.3400    -0.0360 CA         1 MOL       0.086119
     19 H10          1.1680    -1.9590    -0.7080 HA         1 MOL       0.164562
     20 C9          -0.1100     2.4900    -0.0930 CT         1 MOL      -0.241198
     21 C10          0.5140     0.0440    -0.4410 CA         1 MOL       0.013755
     22 H11         -0.4040     2.7100    -1.1150 HC         1 MOL       0.081955
     23 H12         -1.0150     2.2740     0.4630 HC         1 MOL       0.081955
     24 H13         -1.2780     0.5010    -1.5540 H1         1 MOL       0.132084
     25 H14         -0.8730    -1.1880    -1.5070 H1         1 MOL       0.132084
     26 C11         -0.8860    -0.2780    -0.9170 CT         1 MOL      -0.138360
     27 N1          -1.7930    -0.4240     0.2120 N          1 MOL      -0.397371
     28 H15         -1.4060    -0.7240     1.0770 H          1 MOL       0.272217
@<TRIPOS>BOND
     1     1     2 1   
     2     2     3 1   
     3     2     4 1   
     4     2     5 1   
     5     5     6 2   
     6     5    27 1   
     7     7     9 1   
     8     8    10 1   
     9     9    12 1   
    10     9    13 1   
    11     9    14 1   
    12    10    14 1   
    13    10    15 2   
    14    11    15 1   
    15    14    17 2   
    16    15    18 1   
    17    16    20 1   
    18    17    19 1   
    19    17    21 1   
    20    18    20 1   
    21    18    21 2   
    22    20    22 1   
    23    20    23 1   
    24    21    26 1   
    25    24    26 1   
    26    25    26 1   
    27    26    27 1   
    28    27    28 1   
@<TRIPOS>SUBSTRUCTURE
     1 MOL         1 TEMP              0 ****  ****    0 ROOT
