@<TRIPOS>MOLECULE
I3B
   22    22     1     0     0
SMALL
No Charge or Current Charge


@<TRIPOS>ATOM
      1 H242        14.5400   -10.6030    19.1740 H1         2 I3B       0.087627
      2 H241        14.6660    -9.1360    20.1190 H1         2 I3B       0.087627
      3 C24         14.7240   -10.2230    20.1810 CT         2 I3B      -0.047465
      4 N23         16.0670   -10.5870    20.6170 N          2 I3B      -0.462573
      5 HN2         16.5620    -9.8960    21.1790 H          2 I3B       0.313713
      6 H6          10.4220    -9.5550    24.0590 HC         2 I3B      -0.002740
      7 H28         10.8150   -12.0980    23.4280 HA         2 I3B       0.137753
      8 C15         11.5080    -9.6030    24.1480 CT         2 I3B       0.118175
      9 C28         11.5860   -11.7020    22.7810 CA         2 I3B      -0.144489
     10 H4          11.6960   -10.2110    25.0300 HC         2 I3B      -0.002740
     11 H7          11.7100    -7.4960    23.6680 HC         2 I3B       0.031426
     12 H27         11.7680   -13.5420    21.6720 HA         2 I3B       0.146963
     13 H13         11.7720    -7.8010    25.3540 HC         2 I3B       0.031426
     14 C29         12.0630   -10.3880    22.9640 CA         2 I3B      -0.035015
     15 C13         12.0810    -8.1960    24.3900 CT         2 I3B      -0.129112
     16 C27         12.1280   -12.5290    21.7810 CA         2 I3B      -0.175692
     17 C30         13.0750    -9.8950    22.1040 CA         2 I3B      -0.221931
     18 C26         13.1480   -12.0430    20.9460 CA         2 I3B      -0.176290
     19 H14         13.1670    -8.1550    24.3560 HC         2 I3B       0.031426
     20 H30         13.4620    -8.8950    22.2260 HA         2 I3B       0.159429
     21 H26         13.5750   -12.6870    20.1890 HA         2 I3B       0.169850
     22 C25         13.6220   -10.7260    21.0990 CA         2 I3B       0.082633
@<TRIPOS>BOND
     1     1     3 1   
     2     2     3 1   
     3     3     4 1   
     4     3    22 1   
     5     4     5 1   
     6     6     8 1   
     7     7     9 1   
     8     8    10 1   
     9     8    14 1   
    10     8    15 1   
    11     9    14 1   
    12     9    16 2   
    13    11    15 1   
    14    12    16 1   
    15    13    15 1   
    16    14    17 2   
    17    15    19 1   
    18    16    18 1   
    19    17    20 1   
    20    17    22 1   
    21    18    21 1   
    22    18    22 2   
@<TRIPOS>SUBSTRUCTURE
     1 I3B         1 TEMP              0 ****  ****    0 ROOT
