@<TRIPOS>MOLECULE
I5
   16    16     1     0     0
SMALL
No Charge or Current Charge


@<TRIPOS>ATOM
      1 H28         10.8210   -11.9580    23.4230 HA         2 I5        0.128916
      2 H29         11.1430    -9.5390    22.9500 HA         2 I5        0.142229
      3 C28         11.6260   -11.6330    22.7780 CA         2 I5       -0.107583
      4 C29         11.8080   -10.2640    22.5060 CA         2 I5       -0.165197
      5 H27         12.3610   -13.6330    22.4240 HA         2 I5        0.142229
      6 C27         12.4940   -12.5820    22.2070 CA         2 I5       -0.165197
      7 C30         12.8500    -9.8470    21.6540 CA         2 I5       -0.186633
      8 H30         12.9730    -8.7970    21.4420 HA         2 I5        0.155404
      9 C26         13.5400   -12.1660    21.3620 CA         2 I5       -0.186633
     10 C25         13.7220   -10.7960    21.0760 CA         2 I5        0.119633
     11 H26         14.2010   -12.9040    20.9320 HA         2 I5        0.155404
     12 H242        14.6390   -10.7690    19.1450 H1         2 I5        0.087186
     13 H241        14.7760    -9.2610    20.0240 H1         2 I5        0.087186
     14 C24         14.8260   -10.3440    20.1330 CT         2 I5       -0.077699
     15 N23         16.1690   -10.6730    20.5900 N          2 I5       -0.422162
     16 HN2         16.6310    -9.9770    21.1730 H          2 I5        0.292918
@<TRIPOS>BOND
     1     1     3 1   
     2     2     4 1   
     3     3     4 1   
     4     3     6 2   
     5     4     7 2   
     6     5     6 1   
     7     6     9 1   
     8     7     8 1   
     9     7    10 1   
    10     9    10 2   
    11     9    11 1   
    12    10    14 1   
    13    12    14 1   
    14    13    14 1   
    15    14    15 1   
    16    15    16 1   
@<TRIPOS>SUBSTRUCTURE
     1 I5          1 TEMP              0 ****  ****    0 ROOT
