@<TRIPOS>MOLECULE
I7A
   22    22     1     0     0
SMALL
No Charge or Current Charge


@<TRIPOS>ATOM
      1 H14         10.4480    -9.4990    23.9130 HC         2 I7A       0.096327
      2 H28         10.7770   -12.0110    23.4400 HA         2 I7A       0.172862
      3 C13         11.5360    -9.4380    23.8830 CT         2 I7A      -0.330867
      4 C28         11.5690   -11.6940    22.7740 CA         2 I7A      -0.284787
      5 H27         11.6930   -13.6070    21.8140 HA         2 I7A       0.164652
      6 H13         11.8360    -8.4090    23.6900 HC         2 I7A       0.096327
      7 H15         11.8980    -9.7210    24.8680 HC         2 I7A       0.096327
      8 C29         12.0840   -10.3890    22.8430 CA         2 I7A       0.233206
      9 C27         12.0910   -12.6030    21.8420 CA         2 I7A      -0.214715
     10 H4          12.9010   -14.0600    19.8490 HC         2 I7A       0.081955
     11 C30         13.1190    -9.9960    21.9690 CA         2 I7A      -0.299089
     12 C26         13.1230   -12.2220    20.9620 CA         2 I7A       0.086119
     13 H30         13.5200    -8.9950    22.0330 HA         2 I7A       0.164562
     14 C15         13.6360   -13.2670    19.9910 CT         2 I7A      -0.241198
     15 C25         13.6480   -10.9030    21.0220 CA         2 I7A       0.013755
     16 H6          13.8510   -12.8510    19.0090 HC         2 I7A       0.081955
     17 H7          14.5410   -13.7250    20.3890 HC         2 I7A       0.081955
     18 H242        14.6110   -10.7990    19.0850 H1         2 I7A       0.132084
     19 H241        14.6770    -9.3350    20.0090 H1         2 I7A       0.132084
     20 C24         14.7610   -10.4180    20.0950 CT         2 I7A      -0.138360
     21 N23         16.1070   -10.7040    20.5770 N          2 I7A      -0.397371
     22 HN2         16.5080   -10.0400    21.2350 H          2 I7A       0.272217
@<TRIPOS>BOND
     1     1     3 1   
     2     2     4 1   
     3     3     6 1   
     4     3     7 1   
     5     3     8 1   
     6     4     8 1   
     7     4     9 2   
     8     5     9 1   
     9     8    11 2   
    10     9    12 1   
    11    10    14 1   
    12    11    13 1   
    13    11    15 1   
    14    12    14 1   
    15    12    15 2   
    16    14    16 1   
    17    14    17 1   
    18    15    20 1   
    19    18    20 1   
    20    19    20 1   
    21    20    21 1   
    22    21    22 1   
@<TRIPOS>SUBSTRUCTURE
     1 I7A         1 TEMP              0 ****  ****    0 ROOT
