@<TRIPOS>MOLECULE
L49
   39    41     1     0     0
SMALL
No Charge or Current Charge


@<TRIPOS>ATOM
      1 C1          -1.9610    21.5500   -27.3300 ca      1201 L49      -0.218206
      2 C2          -1.2940    22.4120   -28.1960 ca      1201 L49      -0.008320
      3 C3          -1.9550    22.9520   -29.2940 ca      1201 L49      -0.147013
      4 C4          -3.3000    22.6220   -29.5430 ca      1201 L49       0.194899
      5 C5          -3.9690    21.7590   -28.6530 ca      1201 L49      -0.147013
      6 C6          -3.2920    21.2290   -27.5620 ca      1201 L49      -0.008320
      7 CL1         -5.6400    21.3530   -28.9190 cl      1201 L49      -0.058932
      8 C8          -4.0400    23.1520   -30.7110 c       1201 L49       0.722252
      9 O9          -4.2270    22.4200   -31.6680 o       1201 L49      -0.566241
     10 N10         -4.5130    24.4120   -30.6480 n       1201 L49      -0.746482
     11 C11         -5.2870    25.1110   -31.5800 ca      1201 L49       0.748336
     12 C12         -5.9620    24.5480   -32.6810 ca      1201 L49      -0.597067
     13 C13         -6.7810    25.3610   -33.4590 ca      1201 L49       0.311203
     14 N14         -6.9230    26.6540   -33.1830 nb      1201 L49      -0.723700
     15 C15         -6.2980    27.2320   -32.1580 ca      1201 L49       1.007420
     16 C16         -5.5070    26.4570   -31.3070 ca      1201 L49      -0.881958
     17 N17         -6.5390    28.5830   -31.8840 n       1201 L49      -0.829078
     18 C18         -5.7130    29.4450   -31.2330 c       1201 L49       0.833068
     19 O19         -4.6160    29.1220   -30.8100 o       1201 L49      -0.614837
     20 CL2         -1.1120    24.0510   -30.3320 cl      1201 L49      -0.058932
     21 H1          -1.4440    21.1320   -26.4790 ha      1201 L49       0.172176
     22 H2          -0.2590    22.6640   -28.0160 ha      1201 L49       0.133994
     23 H6          -3.8110    20.5610   -26.8910 ha      1201 L49       0.133994
     24 HN10        -4.3170    24.9850   -29.8390 hn      1201 L49       0.354671
     25 H12         -5.8400    23.4990   -32.9090 ha      1201 L49       0.258838
     26 H13         -7.3120    24.9440   -34.3020 h4      1201 L49       0.101071
     27 H16         -5.0640    26.9090   -30.4310 ha      1201 L49       0.324657
     28 HN17        -7.4050    29.0130   -32.1800 hn      1201 L49       0.343470
     29 C303        -7.0260    33.5310   -30.6160 ca      1201 L49      -0.089924
     30 C302        -7.2460    32.9020   -31.8530 ca      1201 L49      -0.159030
     31 C301        -6.8210    31.5780   -32.0520 ca      1201 L49      -0.092635
     32 C20         -6.1760    30.8840   -31.0160 ca      1201 L49      -0.130828
     33 C305        -5.9550    31.5130   -29.7800 ca      1201 L49      -0.092635
     34 C304        -6.3810    32.8370   -29.5800 ca      1201 L49      -0.159030
     35 H331        -7.3600    34.5710   -30.4600 ha      1201 L49       0.134067
     36 H321        -7.7530    33.4480   -32.6670 ha      1201 L49       0.141228
     37 H311        -6.9940    31.0840   -33.0240 ha      1201 L49       0.136804
     38 H351        -5.4490    30.9680   -28.9660 ha      1201 L49       0.136804
     39 H341        -6.2080    33.3320   -28.6090 ha      1201 L49       0.141228
@<TRIPOS>BOND
     1     1     2 ar  
     2     1     6 ar  
     3     1    21 1   
     4     2     3 ar  
     5     2    22 1   
     6     3     4 ar  
     7     3    20 1   
     8     4     5 ar  
     9     4     8 1   
    10     5     6 ar  
    11     5     7 1   
    12     6    23 1   
    13     8     9 2   
    14     8    10 1   
    15    10    11 1   
    16    10    24 1   
    17    11    12 ar  
    18    11    16 ar  
    19    12    13 ar  
    20    12    25 1   
    21    13    14 ar  
    22    13    26 1   
    23    14    15 ar  
    24    15    16 ar  
    25    15    17 1   
    26    16    27 1   
    27    17    18 1   
    28    17    28 1   
    29    18    19 2   
    30    18    32 1   
    31    29    30 ar  
    32    29    34 ar  
    33    29    35 1   
    34    30    31 ar  
    35    30    36 1   
    36    31    32 ar  
    37    31    37 1   
    38    32    33 ar  
    39    33    34 ar  
    40    33    38 1   
    41    34    39 1   
@<TRIPOS>SUBSTRUCTURE
     1 L49         1 TEMP              0 ****  ****    0 ROOT
