@<TRIPOS>MOLECULE
MOL
   25    25     1     0     0
SMALL
rc


@<TRIPOS>ATOM
      1 H1          -4.8110     0.1490     1.0220 HC         1 MOL       0.105190
      2 C1          -3.8190    -0.1860     1.2880 CT         1 MOL      -0.359799
      3 H2          -3.8650    -1.2000     1.6690 HC         1 MOL       0.105190
      4 H3          -3.4410     0.4600     2.0750 HC         1 MOL       0.105190
      5 C2          -2.9200    -0.0570     0.0760 C          1 MOL       0.625462
      6 O1          -3.1110     0.7780    -0.7660 O          1 MOL      -0.581232
      7 H4           4.7880    -0.4390     0.8020 HC         1 MOL       0.100668
      8 H5           3.5960     1.6270     0.6970 HA         1 MOL       0.156552
      9 C3           3.9850    -1.0630     0.4270 CT         1 MOL      -0.358051
     10 C4           2.7100     1.1180     0.3590 CA         1 MOL      -0.262191
     11 H6           4.3340    -1.5420    -0.4830 HC         1 MOL       0.100668
     12 H7           3.8040    -1.8460     1.1570 HC         1 MOL       0.100668
     13 H8           1.5520     2.9120     0.2550 HA         1 MOL       0.145513
     14 C5           2.7350    -0.2530     0.1710 CA         1 MOL       0.249665
     15 C6           1.5520     1.8460     0.1100 CA         1 MOL      -0.128467
     16 C7           1.5690    -0.8800    -0.2690 CA         1 MOL      -0.335227
     17 C8           0.4080     1.2120    -0.3260 CA         1 MOL      -0.234550
     18 H9           1.5770    -1.9480    -0.4220 HA         1 MOL       0.173276
     19 C9           0.4090    -0.1690    -0.5190 CA         1 MOL       0.128318
     20 H10         -0.4870     1.7750    -0.5250 HA         1 MOL       0.181915
     21 H11         -1.2730    -0.3700    -1.8380 H1         1 MOL       0.088313
     22 H12         -0.6110    -1.8900    -1.2860 H1         1 MOL       0.088313
     23 C10         -0.8490    -0.8760    -0.9850 CT         1 MOL      -0.039359
     24 N1          -1.8890    -0.9350     0.0270 N          1 MOL      -0.468075
     25 H13         -1.7190    -1.5040     0.8250 H          1 MOL       0.312050
@<TRIPOS>BOND
     1     1     2 1   
     2     2     3 1   
     3     2     4 1   
     4     2     5 1   
     5     5     6 2   
     6     5    24 1   
     7     7     9 1   
     8     8    10 1   
     9     9    11 1   
    10     9    12 1   
    11     9    14 1   
    12    10    14 1   
    13    10    15 2   
    14    13    15 1   
    15    14    16 2   
    16    15    17 1   
    17    16    18 1   
    18    16    19 1   
    19    17    19 2   
    20    17    20 1   
    21    19    23 1   
    22    21    23 1   
    23    22    23 1   
    24    23    24 1   
    25    24    25 1   
@<TRIPOS>SUBSTRUCTURE
     1 MOL         1 TEMP              0 ****  ****    0 ROOT
