@<TRIPOS>MOLECULE
I1C
   16    16     1     0     0
SMALL
No Charge or Current Charge


@<TRIPOS>ATOM
      1 H28         10.8450   -10.6300    24.0280 HA         2 I1C       0.113729
      2 H27         11.3110   -12.5520    22.5210 HA         2 I1C       0.156422
      3 C28         11.6150   -10.5490    23.2730 CA         2 I1C       0.046810
      4 C27         11.8800   -11.6380    22.4170 CA         2 I1C      -0.219584
      5 BR1         12.0950    -7.9250    24.3750 Br         2 I1C      -0.075366
      6 C29         12.3730    -9.3680    23.1620 CA         2 I1C      -0.199502
      7 C26         12.8880   -11.5390    21.4360 CA         2 I1C      -0.140649
      8 H26         13.0910   -12.3790    20.7860 HA         2 I1C       0.173099
      9 C30         13.3710    -9.2680    22.1730 CA         2 I1C      -0.019647
     10 C25         13.6310   -10.3470    21.3020 CA         2 I1C       0.080303
     11 H30         13.9530    -8.3620    22.1010 HA         2 I1C       0.122365
     12 H242        14.3890   -10.7640    19.3290 H1         2 I1C       0.125502
     13 C24         14.6910   -10.2120    20.2220 CT         2 I1C      -0.176610
     14 H241        14.7290    -9.1610    19.9410 H1         2 I1C       0.125502
     15 N23         16.0300   -10.5890    20.6540 N          2 I1C      -0.418866
     16 HN2         16.5520    -9.8880    21.1800 H          2 I1C       0.306493
@<TRIPOS>BOND
     1     1     3 1   
     2     2     4 1   
     3     3     4 1   
     4     3     6 2   
     5     4     7 2   
     6     5     6 1   
     7     6     9 1   
     8     7     8 1   
     9     7    10 1   
    10     9    10 2   
    11     9    11 1   
    12    10    13 1   
    13    12    13 1   
    14    13    14 1   
    15    13    15 1   
    16    15    16 1   
@<TRIPOS>SUBSTRUCTURE
     1 I1C         1 TEMP              0 ****  ****    0 ROOT
