@<TRIPOS>MOLECULE
L54
   37    38     1     0     0
SMALL
No Charge or Current Charge


@<TRIPOS>ATOM
      1 C1          -1.9610    21.5500   -27.3300 ca      1201 L54      -0.213764
      2 C2          -1.2940    22.4120   -28.1960 ca      1201 L54      -0.012870
      3 C3          -1.9550    22.9520   -29.2940 ca      1201 L54      -0.143197
      4 C4          -3.3000    22.6220   -29.5430 ca      1201 L54       0.187952
      5 C5          -3.9690    21.7590   -28.6530 ca      1201 L54      -0.143197
      6 C6          -3.2920    21.2290   -27.5620 ca      1201 L54      -0.012870
      7 CL1         -5.6400    21.3530   -28.9190 cl      1201 L54      -0.058356
      8 C8          -4.0400    23.1520   -30.7110 c       1201 L54       0.726336
      9 O9          -4.2270    22.4200   -31.6680 o       1201 L54      -0.565396
     10 N10         -4.5130    24.4120   -30.6480 n       1201 L54      -0.788259
     11 C11         -5.2870    25.1110   -31.5800 ca      1201 L54       0.821319
     12 C12         -5.9620    24.5480   -32.6810 ca      1201 L54      -0.644872
     13 C13         -6.7810    25.3610   -33.4590 ca      1201 L54       0.331226
     14 N14         -6.9230    26.6540   -33.1830 nb      1201 L54      -0.735786
     15 C15         -6.2980    27.2320   -32.1580 ca      1201 L54       1.026819
     16 C16         -5.5070    26.4570   -31.3070 ca      1201 L54      -0.923183
     17 N17         -6.5390    28.5830   -31.8840 n       1201 L54      -0.919102
     18 C18         -5.7130    29.4450   -31.2330 c       1201 L54       1.097023
     19 O19         -4.6160    29.1220   -30.8100 o       1201 L54      -0.648471
     20 CL2         -1.1120    24.0510   -30.3320 cl      1201 L54      -0.058356
     21 C401        -5.1870    31.8540   -30.6780 c3      1201 L54       0.304606
     22 C402        -3.9780    31.6720   -31.5470 c3      1201 L54      -0.246114
     23 H1          -1.4440    21.1320   -26.4790 ha      1201 L54       0.171551
     24 H2          -0.2590    22.6640   -28.0160 ha      1201 L54       0.134500
     25 H6          -3.8110    20.5610   -26.8910 ha      1201 L54       0.134500
     26 HN10        -4.3170    24.9850   -29.8390 hn      1201 L54       0.372802
     27 H12         -5.8400    23.4990   -32.9090 ha      1201 L54       0.267106
     28 H13         -7.3120    24.9440   -34.3020 h4      1201 L54       0.097820
     29 H16         -5.0640    26.9090   -30.4310 ha      1201 L54       0.311163
     30 HN17        -7.4050    29.0130   -32.1800 hn      1201 L54       0.367775
     31 H411        -5.5880    32.8580   -30.8200 h1      1201 L54       0.017438
     32 H412        -4.9070    31.7200   -29.6330 h1      1201 L54       0.017438
     33 H421        -3.5770    30.6680   -31.4050 hc      1201 L54       0.064020
     34 H422        -4.2570    31.8070   -32.5920 hc      1201 L54       0.064020
     35 H423        -3.2210    32.4070   -31.2760 hc      1201 L54       0.064020
     36 N1          -6.1550    30.8250   -31.0240 n       1201 L54      -0.904008
     37 HN1         -7.1320    31.0620   -31.1210 hn      1201 L54       0.438369
@<TRIPOS>BOND
     1     1     2 ar  
     2     1     6 ar  
     3     1    23 1   
     4     2     3 ar  
     5     2    24 1   
     6     3     4 ar  
     7     3    20 1   
     8     4     5 ar  
     9     4     8 1   
    10     5     6 ar  
    11     5     7 1   
    12     6    25 1   
    13     8     9 2   
    14     8    10 1   
    15    10    11 1   
    16    10    26 1   
    17    11    12 ar  
    18    11    16 ar  
    19    12    13 ar  
    20    12    27 1   
    21    13    14 ar  
    22    13    28 1   
    23    14    15 ar  
    24    15    16 ar  
    25    15    17 1   
    26    16    29 1   
    27    17    18 1   
    28    17    30 1   
    29    18    19 2   
    30    18    36 1   
    31    21    22 1   
    32    21    31 1   
    33    21    32 1   
    34    21    36 1   
    35    22    33 1   
    36    22    34 1   
    37    22    35 1   
    38    36    37 1   
@<TRIPOS>SUBSTRUCTURE
     1 L54         1 TEMP              0 ****  ****    0 ROOT
