@<TRIPOS>MOLECULE
MOL
   22    22     1     0     0
SMALL
rc


@<TRIPOS>ATOM
      1 H1          -5.1170    -0.1410     1.1070 HC         1 MOL       0.112255
      2 C1          -4.1120    -0.4850     1.3090 CT         1 MOL      -0.380024
      3 H2          -4.1270    -1.5440     1.5370 HC         1 MOL       0.112255
      4 H3          -3.7400     0.0480     2.1790 HC         1 MOL       0.112255
      5 C2          -3.2350    -0.1540     0.1210 C          1 MOL       0.618479
      6 O1          -3.4540     0.7940    -0.5840 O          1 MOL      -0.575220
      7 H4           3.1500     1.8590     0.7310 HA         1 MOL       0.124634
      8 H5           1.0230     3.0630     0.3900 HA         1 MOL       0.163940
      9 C3           2.2830     1.3430     0.3650 CA         1 MOL      -0.012332
     10 C4           1.0820     2.0120     0.1720 CA         1 MOL      -0.222566
     11 Cl1          3.8440    -0.8670     0.3070 Cl         1 MOL      -0.119672
     12 C5           2.3450    -0.0040     0.0740 CA         1 MOL      -0.053677
     13 C6          -0.0300     1.3420    -0.3020 CA         1 MOL      -0.151870
     14 H6          -0.9560     1.8660    -0.4520 HA         1 MOL       0.178146
     15 C7           1.2390    -0.6890    -0.4020 CA         1 MOL      -0.093533
     16 C8           0.0400    -0.0190    -0.5910 CA         1 MOL       0.069571
     17 H7           1.3210    -1.7370    -0.6240 HA         1 MOL       0.138128
     18 H8          -1.6580    -0.2030    -1.8890 H1         1 MOL       0.113698
     19 C9          -1.1820    -0.7610    -1.0970 CT         1 MOL      -0.123553
     20 H9          -0.8870    -1.7220    -1.5020 H1         1 MOL       0.113698
     21 N1          -2.1880    -0.9910    -0.0770 N          1 MOL      -0.434056
     22 H10         -1.9940    -1.6770     0.6160 H          1 MOL       0.309445
@<TRIPOS>BOND
     1     1     2 1   
     2     2     3 1   
     3     2     4 1   
     4     2     5 1   
     5     5     6 2   
     6     5    21 1   
     7     7     9 1   
     8     8    10 1   
     9     9    10 1   
    10     9    12 2   
    11    10    13 2   
    12    11    12 1   
    13    12    15 1   
    14    13    14 1   
    15    13    16 1   
    16    15    16 2   
    17    15    17 1   
    18    16    19 1   
    19    18    19 1   
    20    19    20 1   
    21    19    21 1   
    22    21    22 1   
@<TRIPOS>SUBSTRUCTURE
     1 MOL         1 TEMP              0 ****  ****    0 ROOT
