@<TRIPOS>MOLECULE
I6E
   16    16     1     0     0
SMALL
No Charge or Current Charge


@<TRIPOS>ATOM
      1 H28         10.8010   -10.5310    24.0690 HA         2 I6E       0.144627
      2 H27         11.1480   -12.4640    22.5430 HA         2 I6E       0.195194
      3 C28         11.5680   -10.4860    23.3080 CA         2 I6E      -0.015720
      4 C27         11.7650   -11.5820    22.4440 CA         2 I6E      -0.308770
      5 CL1         12.1700    -8.0090    24.2630 Cl         2 I6E      -0.106431
      6 C29         12.3750    -9.3400    23.1820 CA         2 I6E      -0.078347
      7 C26         12.7540   -11.5270    21.4410 CA         2 I6E       0.272500
      8 F1          12.8930   -12.5680    20.5870 F          2 I6E      -0.171128
      9 C30         13.3730    -9.2910    22.1870 CA         2 I6E      -0.064007
     10 C25         13.5700   -10.3800    21.3110 CA         2 I6E      -0.050652
     11 H30         13.9930    -8.4120    22.1040 HA         2 I6E       0.145007
     12 H242        14.3280   -10.8830    19.3530 H1         2 I6E       0.115569
     13 C24         14.6260   -10.2860    20.2180 CT         2 I6E      -0.066754
     14 H241        14.6350    -9.2510    19.8870 H1         2 I6E       0.115569
     15 N23         15.9840   -10.6080    20.6540 N          2 I6E      -0.407601
     16 HN2         16.4830    -9.8960    21.1850 H          2 I6E       0.280944
@<TRIPOS>BOND
     1     1     3 1   
     2     2     4 1   
     3     3     4 1   
     4     3     6 2   
     5     4     7 2   
     6     5     6 1   
     7     6     9 1   
     8     7     8 1   
     9     7    10 1   
    10     9    10 2   
    11     9    11 1   
    12    10    13 1   
    13    12    13 1   
    14    13    14 1   
    15    13    15 1   
    16    15    16 1   
@<TRIPOS>SUBSTRUCTURE
     1 I6E         1 TEMP              0 ****  ****    0 ROOT
