@<TRIPOS>MOLECULE
I6B
   19    19     1     0     0
SMALL
No Charge or Current Charge


@<TRIPOS>ATOM
      1 H28         10.8150   -10.4350    24.1700 HA         2 I6B       0.139242
      2 H27         11.1760   -12.4290    22.7620 HA         2 I6B       0.174842
      3 C28         11.5700   -10.4150    23.3970 CA         2 I6B      -0.044338
      4 C27         11.7790   -11.5480    22.5900 CA         2 I6B      -0.280983
      5 CL1         12.1870    -7.9180    24.2730 Cl         2 I6B      -0.116856
      6 H4          12.2300   -13.5620    21.0120 HC         2 I6B       0.097667
      7 C29         12.3690    -9.2730    23.2180 CA         2 I6B      -0.054913
      8 C26         12.7720   -11.5440    21.5860 CA         2 I6B       0.136694
      9 H6          12.9420   -12.6180    19.7080 HC         2 I6B       0.097667
     10 C13         12.9870   -12.8110    20.7790 CT         2 I6B      -0.282162
     11 C30         13.3450    -9.2540    22.2020 CA         2 I6B      -0.052987
     12 C25         13.5530   -10.3780    21.3700 CA         2 I6B      -0.043577
     13 H30         13.9540    -8.3730    22.0760 HA         2 I6B       0.126058
     14 H7          13.9600   -13.2420    21.0160 HC         2 I6B       0.097667
     15 H242        14.2980   -10.8460    19.3810 H1         2 I6B       0.147142
     16 C24         14.6010   -10.2790    20.2620 CT         2 I6B      -0.183992
     17 H241        14.6230    -9.2400    19.9410 H1         2 I6B       0.147142
     18 N23         15.9570   -10.6180    20.6810 N          2 I6B      -0.368570
     19 HN2         16.4530    -9.9180    21.2310 H          2 I6B       0.264258
@<TRIPOS>BOND
     1     1     3 1   
     2     2     4 1   
     3     3     4 1   
     4     3     7 2   
     5     4     8 2   
     6     5     7 1   
     7     6    10 1   
     8     7    11 1   
     9     8    10 1   
    10     8    12 1   
    11     9    10 1   
    12    10    14 1   
    13    11    12 2   
    14    11    13 1   
    15    12    16 1   
    16    15    16 1   
    17    16    17 1   
    18    16    18 1   
    19    18    19 1   
@<TRIPOS>SUBSTRUCTURE
     1 I6B         1 TEMP              0 ****  ****    0 ROOT
