@<TRIPOS>MOLECULE
I1A
   16    16     1     0     0
SMALL
No Charge or Current Charge


@<TRIPOS>ATOM
      1 H28         10.7940   -11.4930    23.5600 HA         2 I1A       0.180373
      2 C28         11.6070   -11.2560    22.8870 CA         2 I1A      -0.294576
      3 F1          11.6290    -8.9900    23.6640 F          2 I1A      -0.224673
      4 H27         11.7600   -13.2620    22.0960 HA         2 I1A       0.153708
      5 C29         12.1300    -9.9480    22.8490 CA         2 I1A       0.388925
      6 C27         12.1530   -12.2550    22.0550 CA         2 I1A      -0.103803
      7 C30         13.1830    -9.6360    21.9680 CA         2 I1A      -0.371879
      8 C26         13.2090   -11.9430    21.1730 CA         2 I1A      -0.258603
      9 H30         13.5780    -8.6310    21.9530 HA         2 I1A       0.195376
     10 H26         13.6270   -12.7130    20.5370 HA         2 I1A       0.188142
     11 C25         13.7200   -10.6280    21.1180 CA         2 I1A       0.158089
     12 H242        14.6150   -10.7330    19.1720 H1         2 I1A       0.097473
     13 H241        14.8210    -9.1970    19.9900 H1         2 I1A       0.097473
     14 C24         14.8280   -10.2760    20.1410 CT         2 I1A      -0.065477
     15 N23         16.1560   -10.6410    20.6070 N          2 I1A      -0.450824
     16 HN2         16.6540    -9.9370    21.1520 H          2 I1A       0.310277
@<TRIPOS>BOND
     1     1     2 1   
     2     2     5 1   
     3     2     6 2   
     4     3     5 1   
     5     4     6 1   
     6     5     7 2   
     7     6     8 1   
     8     7     9 1   
     9     7    11 1   
    10     8    10 1   
    11     8    11 2   
    12    11    14 1   
    13    12    14 1   
    14    13    14 1   
    15    14    15 1   
    16    15    16 1   
@<TRIPOS>SUBSTRUCTURE
     1 I1A         1 TEMP              0 ****  ****    0 ROOT
