@<TRIPOS>MOLECULE
MOL
   22    22     1     0     0
SMALL
rc


@<TRIPOS>ATOM
      1 H1          -4.7610     0.2500     1.0120 HC         1 MOL       0.107088
      2 C1          -3.7910    -0.1480     1.2730 CT         1 MOL      -0.362104
      3 H2          -3.8940    -1.1750     1.6030 HC         1 MOL       0.107088
      4 H3          -3.3920     0.4390     2.0950 HC         1 MOL       0.107088
      5 C2          -2.8690    -0.0090     0.0800 C          1 MOL       0.616902
      6 O1          -3.0050     0.8720    -0.7260 O          1 MOL      -0.576063
      7 H4           3.6680     1.5080     0.7250 HA         1 MOL       0.180373
      8 C3           2.7610     1.0510     0.3780 CA         1 MOL      -0.294576
      9 F1           3.7820    -1.0450     0.4650 F          1 MOL      -0.224673
     10 H5           1.6460     2.8620     0.2200 HA         1 MOL       0.153708
     11 C4           2.7040    -0.3110     0.1990 CA         1 MOL       0.388925
     12 C5           1.6240     1.7950     0.0930 CA         1 MOL      -0.103803
     13 C6           1.5650    -0.9510    -0.2470 CA         1 MOL      -0.371879
     14 C7           0.4690     1.1800    -0.3560 CA         1 MOL      -0.258603
     15 H6           1.5820    -2.0180    -0.3730 HA         1 MOL       0.195376
     16 H7          -0.4050     1.7640    -0.5780 HA         1 MOL       0.188142
     17 C8           0.4320    -0.2020    -0.5280 CA         1 MOL       0.158089
     18 H8          -1.2450    -0.3580    -1.8560 H1         1 MOL       0.097473
     19 H9          -0.6160    -1.8960    -1.3160 H1         1 MOL       0.097473
     20 C9          -0.8370    -0.8820    -1.0060 CT         1 MOL      -0.065477
     21 N1          -1.8820    -0.9330     0.0000 N          1 MOL      -0.450824
     22 H10         -1.7520    -1.5520     0.7680 H          1 MOL       0.310277
@<TRIPOS>BOND
     1     1     2 1   
     2     2     3 1   
     3     2     4 1   
     4     2     5 1   
     5     5     6 2   
     6     5    21 1   
     7     7     8 1   
     8     8    11 1   
     9     8    12 2   
    10     9    11 1   
    11    10    12 1   
    12    11    13 2   
    13    12    14 1   
    14    13    15 1   
    15    13    17 1   
    16    14    16 1   
    17    14    17 2   
    18    17    20 1   
    19    18    20 1   
    20    19    20 1   
    21    20    21 1   
    22    21    22 1   
@<TRIPOS>SUBSTRUCTURE
     1 MOL         1 TEMP              0 ****  ****    0 ROOT
