@<TRIPOS>MOLECULE
L28
   39    41     1     0     0
SMALL
No Charge or Current Charge


@<TRIPOS>ATOM
      1 C1          -1.9610    21.5500   -27.3300 ca      1201 L28      -0.220009
      2 C2          -1.2940    22.4120   -28.1960 ca      1201 L28      -0.005637
      3 C3          -1.9550    22.9520   -29.2940 ca      1201 L28      -0.150024
      4 C4          -3.3000    22.6220   -29.5430 ca      1201 L28       0.196337
      5 C5          -3.9690    21.7590   -28.6530 ca      1201 L28      -0.150024
      6 C6          -3.2920    21.2290   -27.5620 ca      1201 L28      -0.005637
      7 CL1         -5.6400    21.3530   -28.9190 cl      1201 L28      -0.057758
      8 C8          -4.0400    23.1520   -30.7110 c       1201 L28       0.728451
      9 O9          -4.2270    22.4200   -31.6680 o       1201 L28      -0.566353
     10 N10         -4.5130    24.4120   -30.6480 n       1201 L28      -0.785280
     11 C11         -5.2870    25.1110   -31.5800 ca      1201 L28       0.800561
     12 C12         -5.9620    24.5480   -32.6810 ca      1201 L28      -0.625217
     13 C13         -6.7810    25.3610   -33.4590 ca      1201 L28       0.323789
     14 N14         -6.9230    26.6540   -33.1830 nb      1201 L28      -0.725681
     15 C15         -6.2980    27.2320   -32.1580 ca      1201 L28       0.995335
     16 C16         -5.5070    26.4570   -31.3070 ca      1201 L28      -0.899606
     17 N17         -6.5390    28.5830   -31.8840 n       1201 L28      -0.837861
     18 C18         -5.7130    29.4450   -31.2330 c       1201 L28       0.927718
     19 O19         -4.6160    29.1220   -30.8100 o       1201 L28      -0.619365
     20 C20         -6.2320    30.8470   -31.0310 cx      1201 L28      -0.407605
     21 C22         -5.5790    31.7460   -29.9760 cx      1201 L28      -0.337339
     22 C23         -5.3640    32.0240   -31.4650 cx      1201 L28       0.087862
     23 C24         -4.0190    31.7000   -32.0460 c3      1201 L28      -0.415820
     24 CL2         -1.1120    24.0510   -30.3320 cl      1201 L28      -0.057758
     25 H21         -7.3050    30.9410   -31.1620 hc      1201 L28       0.177638
     26 H24         -5.8630    32.8960   -31.8830 hc      1201 L28       0.084694
     27 H1          -1.4440    21.1320   -26.4790 ha      1201 L28       0.172575
     28 H2          -0.2590    22.6640   -28.0160 ha      1201 L28       0.133159
     29 H6          -3.8110    20.5610   -26.8910 ha      1201 L28       0.133159
     30 HN10        -4.3170    24.9850   -29.8390 hn      1201 L28       0.368343
     31 H12         -5.8400    23.4990   -32.9090 ha      1201 L28       0.263821
     32 H13         -7.3120    24.9440   -34.3020 h4      1201 L28       0.099186
     33 H16         -5.0640    26.9090   -30.4310 ha      1201 L28       0.314635
     34 HN17        -7.4050    29.0130   -32.1800 hn      1201 L28       0.347689
     35 H221        -6.3520    32.2040   -29.3580 hc      1201 L28       0.164198
     36 H222        -4.9170    31.1490   -29.3470 hc      1201 L28       0.164198
     37 H241        -3.5060    32.6240   -32.3130 hc      1201 L28       0.127875
     38 H242        -3.4270    31.1550   -31.3110 hc      1201 L28       0.127875
     39 H243        -4.1460    31.0860   -32.9380 hc      1201 L28       0.127875
@<TRIPOS>BOND
     1     1     2 ar  
     2     1     6 ar  
     3     1    27 1   
     4     2     3 ar  
     5     2    28 1   
     6     3     4 ar  
     7     3    24 1   
     8     4     5 ar  
     9     4     8 1   
    10     5     6 ar  
    11     5     7 1   
    12     6    29 1   
    13     8     9 2   
    14     8    10 1   
    15    10    11 1   
    16    10    30 1   
    17    11    12 ar  
    18    11    16 ar  
    19    12    13 ar  
    20    12    31 1   
    21    13    14 ar  
    22    13    32 1   
    23    14    15 ar  
    24    15    16 ar  
    25    15    17 1   
    26    16    33 1   
    27    17    18 1   
    28    17    34 1   
    29    18    19 2   
    30    18    20 1   
    31    20    21 1   
    32    20    22 1   
    33    20    25 1   
    34    21    22 1   
    35    21    35 1   
    36    21    36 1   
    37    22    23 1   
    38    22    26 1   
    39    23    37 1   
    40    23    38 1   
    41    23    39 1   
@<TRIPOS>SUBSTRUCTURE
     1 L28         1 TEMP              0 ****  ****    0 ROOT
