@<TRIPOS>MOLECULE
L43
   38    39     1     0     0
SMALL
No Charge or Current Charge


@<TRIPOS>ATOM
      1 C1          -1.9610    21.5500   -27.3300 ca      1201 L43      -0.216139
      2 C2          -1.2940    22.4120   -28.1960 ca      1201 L43      -0.008133
      3 C3          -1.9550    22.9520   -29.2940 ca      1201 L43      -0.149005
      4 C4          -3.3000    22.6220   -29.5430 ca      1201 L43       0.197408
      5 C5          -3.9690    21.7590   -28.6530 ca      1201 L43      -0.149005
      6 C6          -3.2920    21.2290   -27.5620 ca      1201 L43      -0.008133
      7 CL1         -5.6400    21.3530   -28.9190 cl      1201 L43      -0.058127
      8 C8          -4.0400    23.1520   -30.7110 c       1201 L43       0.723541
      9 O9          -4.2270    22.4200   -31.6680 o       1201 L43      -0.566104
     10 N10         -4.5130    24.4120   -30.6480 n       1201 L43      -0.760300
     11 C11         -5.2870    25.1110   -31.5800 ca      1201 L43       0.764130
     12 C12         -5.9620    24.5480   -32.6810 ca      1201 L43      -0.595623
     13 C13         -6.7810    25.3610   -33.4590 ca      1201 L43       0.301401
     14 N14         -6.9230    26.6540   -33.1830 nb      1201 L43      -0.724411
     15 C15         -6.2980    27.2320   -32.1580 ca      1201 L43       1.029965
     16 C16         -5.5070    26.4570   -31.3070 ca      1201 L43      -0.901175
     17 N17         -6.5390    28.5830   -31.8840 n       1201 L43      -0.896472
     18 C18         -5.7130    29.4450   -31.2330 c       1201 L43       0.875286
     19 O19         -4.6160    29.1220   -30.8100 o       1201 L43      -0.653603
     20 C20         -6.2320    30.8470   -31.0310 c3      1201 L43       0.129205
     21 CL2         -1.1120    24.0510   -30.3320 cl      1201 L43      -0.058127
     22 C40         -6.9630    31.4000   -32.2180 c3      1201 L43      -0.459959
     23 C30         -5.0890    31.7550   -30.6830 c3      1201 L43      -0.459959
     24 H1          -1.4440    21.1320   -26.4790 ha      1201 L43       0.171685
     25 H2          -0.2590    22.6640   -28.0160 ha      1201 L43       0.133762
     26 H6          -3.8110    20.5610   -26.8910 ha      1201 L43       0.133762
     27 HN10        -4.3170    24.9850   -29.8390 hn      1201 L43       0.357908
     28 H12         -5.8400    23.4990   -32.9090 ha      1201 L43       0.257885
     29 H13         -7.3120    24.9440   -34.3020 h4      1201 L43       0.105233
     30 H16         -5.0640    26.9090   -30.4310 ha      1201 L43       0.335024
     31 HN17        -7.4050    29.0130   -32.1800 hn      1201 L43       0.353192
     32 H202        -6.8880    30.8680   -30.1610 hc      1201 L43       0.029884
     33 H301        -5.4620    32.7690   -30.5370 hc      1201 L43       0.127501
     34 H302        -4.6140    31.4060   -29.7660 hc      1201 L43       0.127501
     35 H303        -4.3610    31.7490   -31.4940 hc      1201 L43       0.127501
     36 H401        -7.3050    32.4110   -31.9960 hc      1201 L43       0.127501
     37 H402        -6.2940    31.4240   -33.0790 hc      1201 L43       0.127501
     38 H403        -7.8220    30.7680   -32.4440 hc      1201 L43       0.127501
@<TRIPOS>BOND
     1     1     2 ar  
     2     1     6 ar  
     3     1    24 1   
     4     2     3 ar  
     5     2    25 1   
     6     3     4 ar  
     7     3    21 1   
     8     4     5 ar  
     9     4     8 1   
    10     5     6 ar  
    11     5     7 1   
    12     6    26 1   
    13     8     9 2   
    14     8    10 1   
    15    10    11 1   
    16    10    27 1   
    17    11    12 ar  
    18    11    16 ar  
    19    12    13 ar  
    20    12    28 1   
    21    13    14 ar  
    22    13    29 1   
    23    14    15 ar  
    24    15    16 ar  
    25    15    17 1   
    26    16    30 1   
    27    17    18 1   
    28    17    31 1   
    29    18    19 2   
    30    18    20 1   
    31    20    22 1   
    32    20    23 1   
    33    20    32 1   
    34    22    36 1   
    35    22    37 1   
    36    22    38 1   
    37    23    33 1   
    38    23    34 1   
    39    23    35 1   
@<TRIPOS>SUBSTRUCTURE
     1 L43         1 TEMP              0 ****  ****    0 ROOT
