@<TRIPOS>MOLECULE
L30
   37    39     1     0     0
SMALL
No Charge or Current Charge


@<TRIPOS>ATOM
      1 C1          -1.9610    21.5500   -27.3300 ca      1201 L30      -0.217821
      2 C2          -1.2940    22.4120   -28.1960 ca      1201 L30      -0.008486
      3 C3          -1.9550    22.9520   -29.2940 ca      1201 L30      -0.137934
      4 C4          -3.3000    22.6220   -29.5430 ca      1201 L30       0.174520
      5 C5          -3.9690    21.7590   -28.6530 ca      1201 L30      -0.137934
      6 C6          -3.2920    21.2290   -27.5620 ca      1201 L30      -0.008486
      7 CL1         -5.6400    21.3530   -28.9190 cl      1201 L30      -0.058539
      8 C8          -4.0400    23.1520   -30.7110 c       1201 L30       0.734224
      9 O9          -4.2270    22.4200   -31.6680 o       1201 L30      -0.564891
     10 N10         -4.5130    24.4120   -30.6480 n       1201 L30      -0.785797
     11 C11         -5.2870    25.1110   -31.5800 ca      1201 L30       0.781511
     12 C12         -5.9620    24.5480   -32.6810 ca      1201 L30      -0.609642
     13 C13         -6.7810    25.3610   -33.4590 ca      1201 L30       0.325010
     14 N14         -6.9230    26.6540   -33.1830 nb      1201 L30      -0.721767
     15 C15         -6.2980    27.2320   -32.1580 ca      1201 L30       0.960876
     16 C16         -5.5070    26.4570   -31.3070 ca      1201 L30      -0.860514
     17 N17         -6.5390    28.5830   -31.8840 n       1201 L30      -0.798462
     18 C18         -5.7130    29.4450   -31.2330 c       1201 L30       0.858237
     19 O19         -4.6160    29.1220   -30.8100 o       1201 L30      -0.569239
     20 C20         -6.2320    30.8470   -31.0310 cx      1201 L30      -0.330881
     21 C22         -5.5790    31.7460   -29.9760 cx      1201 L30      -0.278768
     22 C23         -5.3640    32.0240   -31.4650 cx      1201 L30      -0.116338
     23 C24         -4.0190    31.7000   -32.0460 c1      1201 L30       0.391787
     24 CL2         -1.1120    24.0510   -30.3320 cl      1201 L30      -0.058539
     25 H21         -7.3050    30.9410   -31.1620 hc      1201 L30       0.191763
     26 H24         -5.8630    32.8960   -31.8830 hc      1201 L30       0.155736
     27 H1          -1.4440    21.1320   -26.4790 ha      1201 L30       0.173088
     28 H2          -0.2590    22.6640   -28.0160 ha      1201 L30       0.133409
     29 H6          -3.8110    20.5610   -26.8910 ha      1201 L30       0.133409
     30 HN10        -4.3170    24.9850   -29.8390 hn      1201 L30       0.373269
     31 H12         -5.8400    23.4990   -32.9090 ha      1201 L30       0.262207
     32 H13         -7.3120    24.9440   -34.3020 h4      1201 L30       0.099307
     33 H16         -5.0640    26.9090   -30.4310 ha      1201 L30       0.305057
     34 HN17        -7.4050    29.0130   -32.1800 hn      1201 L30       0.345746
     35 H221        -6.3520    32.2040   -29.3580 hc      1201 L30       0.170867
     36 H222        -4.9170    31.1490   -29.3470 hc      1201 L30       0.170867
     37 N25         -2.7000    31.3830   -32.6160 n1      1201 L30      -0.476853
@<TRIPOS>BOND
     1     1     2 ar  
     2     1     6 ar  
     3     1    27 1   
     4     2     3 ar  
     5     2    28 1   
     6     3     4 ar  
     7     3    24 1   
     8     4     5 ar  
     9     4     8 1   
    10     5     6 ar  
    11     5     7 1   
    12     6    29 1   
    13     8     9 2   
    14     8    10 1   
    15    10    11 1   
    16    10    30 1   
    17    11    12 ar  
    18    11    16 ar  
    19    12    13 ar  
    20    12    31 1   
    21    13    14 ar  
    22    13    32 1   
    23    14    15 ar  
    24    15    16 ar  
    25    15    17 1   
    26    16    33 1   
    27    17    18 1   
    28    17    34 1   
    29    18    19 2   
    30    18    20 1   
    31    20    21 1   
    32    20    22 1   
    33    20    25 1   
    34    21    22 1   
    35    21    35 1   
    36    21    36 1   
    37    22    23 1   
    38    22    26 1   
    39    23    37 3   
@<TRIPOS>SUBSTRUCTURE
     1 L30         1 TEMP              0 ****  ****    0 ROOT
