@<TRIPOS>MOLECULE
L48
   42    44     1     0     0
SMALL
No Charge or Current Charge


@<TRIPOS>ATOM
      1 C1          -1.9610    21.5500   -27.3300 ca      1201 L48      -0.218256
      2 C2          -1.2940    22.4120   -28.1960 ca      1201 L48      -0.007627
      3 C3          -1.9550    22.9520   -29.2940 ca      1201 L48      -0.148616
      4 C4          -3.3000    22.6220   -29.5430 ca      1201 L48       0.197206
      5 C5          -3.9690    21.7590   -28.6530 ca      1201 L48      -0.148616
      6 C6          -3.2920    21.2290   -27.5620 ca      1201 L48      -0.007627
      7 CL1         -5.6400    21.3530   -28.9190 cl      1201 L48      -0.058850
      8 C8          -4.0400    23.1520   -30.7110 c       1201 L48       0.728361
      9 O9          -4.2270    22.4200   -31.6680 o       1201 L48      -0.568703
     10 N10         -4.5130    24.4120   -30.6480 n       1201 L48      -0.750609
     11 C11         -5.2870    25.1110   -31.5800 ca      1201 L48       0.739325
     12 C12         -5.9620    24.5480   -32.6810 ca      1201 L48      -0.585367
     13 C13         -6.7810    25.3610   -33.4590 ca      1201 L48       0.300968
     14 N14         -6.9230    26.6540   -33.1830 nb      1201 L48      -0.722610
     15 C15         -6.2980    27.2320   -32.1580 ca      1201 L48       0.992288
     16 C16         -5.5070    26.4570   -31.3070 ca      1201 L48      -0.865620
     17 N17         -6.5390    28.5830   -31.8840 n       1201 L48      -0.787782
     18 C18         -5.7130    29.4450   -31.2330 c       1201 L48       0.714676
     19 O19         -4.6160    29.1220   -30.8100 o       1201 L48      -0.616266
     20 CL2         -1.1120    24.0510   -30.3320 cl      1201 L48      -0.058850
     21 H1          -1.4440    21.1320   -26.4790 ha      1201 L48       0.172517
     22 H2          -0.2590    22.6640   -28.0160 ha      1201 L48       0.133804
     23 H6          -3.8110    20.5610   -26.8910 ha      1201 L48       0.133804
     24 HN10        -4.3170    24.9850   -29.8390 hn      1201 L48       0.352173
     25 H12         -5.8400    23.4990   -32.9090 ha      1201 L48       0.255434
     26 H13         -7.3120    24.9440   -34.3020 h4      1201 L48       0.104910
     27 H16         -5.0640    26.9090   -30.4310 ha      1201 L48       0.328015
     28 HN17        -7.4050    29.0130   -32.1800 hn      1201 L48       0.330756
     29 C20         -6.1760    30.8840   -31.0160 c3      1201 L48      -0.026447
     30 C201        -5.7760    31.3310   -29.6030 c3      1201 L48      -0.145609
     31 C202        -4.4020    31.9770   -29.7970 c3      1201 L48       0.041888
     32 C203        -4.5850    32.7530   -31.1040 c3      1201 L48       0.041888
     33 C204        -5.4200    31.8130   -31.9830 c3      1201 L48      -0.145609
     34 H21         -7.2840    30.9670   -31.1540 hc      1201 L48       0.056568
     35 H211        -5.7580    30.4900   -28.8680 hc      1201 L48       0.063985
     36 H212        -6.4960    32.1000   -29.2320 hc      1201 L48       0.063985
     37 H221        -4.1040    32.6290   -28.9420 hc      1201 L48      -0.004364
     38 H222        -3.6250    31.1860   -29.9300 hc      1201 L48      -0.004364
     39 H231        -5.1600    33.6880   -30.8980 hc      1201 L48      -0.004364
     40 H232        -3.6130    33.0420   -31.5730 hc      1201 L48      -0.004364
     41 H241        -4.7460    31.2110   -32.6410 hc      1201 L48       0.063985
     42 H242        -6.1120    32.3850   -32.6480 hc      1201 L48       0.063985
@<TRIPOS>BOND
     1     1     2 ar  
     2     1     6 ar  
     3     1    21 1   
     4     2     3 ar  
     5     2    22 1   
     6     3     4 ar  
     7     3    20 1   
     8     4     5 ar  
     9     4     8 1   
    10     5     6 ar  
    11     5     7 1   
    12     6    23 1   
    13     8     9 2   
    14     8    10 1   
    15    10    11 1   
    16    10    24 1   
    17    11    12 ar  
    18    11    16 ar  
    19    12    13 ar  
    20    12    25 1   
    21    13    14 ar  
    22    13    26 1   
    23    14    15 ar  
    24    15    16 ar  
    25    15    17 1   
    26    16    27 1   
    27    17    18 1   
    28    17    28 1   
    29    18    19 2   
    30    18    29 1   
    31    29    30 1   
    32    29    33 1   
    33    29    34 1   
    34    30    31 1   
    35    30    35 1   
    36    30    36 1   
    37    31    32 1   
    38    31    37 1   
    39    31    38 1   
    40    32    33 1   
    41    32    39 1   
    42    32    40 1   
    43    33    41 1   
    44    33    42 1   
@<TRIPOS>SUBSTRUCTURE
     1 L48         1 TEMP              0 ****  ****    0 ROOT
