@<TRIPOS>MOLECULE
MOL
   28    28     1     0     0
SMALL
rc


@<TRIPOS>ATOM
      1 H1          -5.0370    -0.6340     1.2160 HC         1 MOL       0.108833
      2 C1          -3.9980    -0.9280     1.2730 CT         1 MOL      -0.374110
      3 H2          -3.9230    -2.0090     1.2480 HC         1 MOL       0.108833
      4 H3          -3.5960    -0.5770     2.2180 HC         1 MOL       0.108833
      5 C2          -3.2410    -0.2640     0.1420 C          1 MOL       0.627633
      6 O1          -3.5830     0.7950    -0.3110 O          1 MOL      -0.580021
      7 H4          -1.7800     0.3320    -1.8560 H1         1 MOL       0.087627
      8 H5          -0.9390    -1.1960    -1.9520 H1         1 MOL       0.087627
      9 C3          -1.2300    -0.3970    -1.2800 CT         1 MOL      -0.047465
     10 N1          -2.1540    -0.9410    -0.3010 N          1 MOL      -0.462573
     11 H6          -1.8580    -1.7390     0.2130 H          1 MOL       0.313713
     12 H7           3.7810    -1.0710    -1.2430 HC         1 MOL      -0.002740
     13 H8           3.1400     1.8270     0.9140 HA         1 MOL       0.137753
     14 C4           3.7180    -0.5480    -0.2940 CT         1 MOL       0.118175
     15 C5           2.2680     1.3730     0.4750 CA         1 MOL      -0.144489
     16 H9           4.5200     0.1840    -0.2920 HC         1 MOL      -0.002740
     17 H10          3.1720    -2.3110     0.8550 HC         1 MOL       0.031426
     18 H11          0.9640     2.9470     1.0990 HA         1 MOL       0.146963
     19 H12          4.9050    -2.0370     0.7500 HC         1 MOL       0.031426
     20 C6           2.3860     0.1670    -0.1980 CA         1 MOL      -0.035015
     21 C7           3.9420    -1.5450     0.8490 CT         1 MOL      -0.129112
     22 C8           1.0370     2.0070     0.5810 CA         1 MOL      -0.175692
     23 C9           1.2390    -0.3870    -0.7630 CA         1 MOL      -0.221931
     24 C10         -0.0910     1.4440     0.0160 CA         1 MOL      -0.176290
     25 H13          3.9160    -1.0440     1.8120 HC         1 MOL       0.031426
     26 H14          1.3200    -1.3190    -1.2990 HA         1 MOL       0.159429
     27 H15         -1.0420     1.9390     0.0910 HA         1 MOL       0.169850
     28 C11          0.0040     0.2330    -0.6640 CA         1 MOL       0.082633
@<TRIPOS>BOND
     1     1     2 1   
     2     2     3 1   
     3     2     4 1   
     4     2     5 1   
     5     5     6 2   
     6     5    10 1   
     7     7     9 1   
     8     8     9 1   
     9     9    10 1   
    10     9    28 1   
    11    10    11 1   
    12    12    14 1   
    13    13    15 1   
    14    14    16 1   
    15    14    20 1   
    16    14    21 1   
    17    15    20 1   
    18    15    22 2   
    19    17    21 1   
    20    18    22 1   
    21    19    21 1   
    22    20    23 2   
    23    21    25 1   
    24    22    24 1   
    25    23    26 1   
    26    23    28 1   
    27    24    27 1   
    28    24    28 2   
@<TRIPOS>SUBSTRUCTURE
     1 MOL         1 TEMP              0 ****  ****    0 ROOT
