@<TRIPOS>MOLECULE
MOL
   22    22     1     0     0
SMALL
rc


@<TRIPOS>ATOM
      1 H1          -5.7250    -0.4610     1.1640 HC         1 MOL       0.111829
      2 C1          -4.6940    -0.7410     1.3290 CT         1 MOL      -0.378714
      3 H2          -4.6280    -1.8090     1.5010 HC         1 MOL       0.111829
      4 H3          -4.3410    -0.2270     2.2180 HC         1 MOL       0.111829
      5 C2          -3.8700    -0.2870     0.1430 C          1 MOL       0.616952
      6 O1          -4.1720     0.6780    -0.5070 O          1 MOL      -0.573725
      7 H4           2.3600     2.1660     0.7290 HA         1 MOL       0.113729
      8 H5           0.1430     3.2210     0.4920 HA         1 MOL       0.156422
      9 C3           1.5260     1.6040     0.3540 CA         1 MOL       0.046810
     10 C4           0.2750     2.1890     0.2190 CA         1 MOL      -0.219584
     11 Br1          3.3840    -0.5430     0.1670 Br         1 MOL      -0.075366
     12 C5           1.6800     0.2820    -0.0070 CA         1 MOL      -0.199502
     13 C6          -0.7950     1.4620    -0.2660 CA         1 MOL      -0.140649
     14 H6          -1.7600     1.9220    -0.3700 HA         1 MOL       0.173099
     15 C7           0.6180    -0.4600    -0.4940 CA         1 MOL      -0.019647
     16 C8          -0.6320     0.1260    -0.6260 CA         1 MOL       0.080303
     17 H7           0.7710    -1.4860    -0.7720 HA         1 MOL       0.122365
     18 H8          -2.3400    -0.1220    -1.8980 H1         1 MOL       0.125502
     19 C9          -1.8070    -0.6810    -1.1450 CT         1 MOL      -0.176610
     20 H9          -1.4510    -1.5950    -1.6020 H1         1 MOL       0.125502
     21 N1          -2.7700    -1.0340    -0.1180 N          1 MOL      -0.418866
     22 H10         -2.5120    -1.7390     0.5340 H          1 MOL       0.306493
@<TRIPOS>BOND
     1     1     2 1   
     2     2     3 1   
     3     2     4 1   
     4     2     5 1   
     5     5     6 2   
     6     5    21 1   
     7     7     9 1   
     8     8    10 1   
     9     9    10 1   
    10     9    12 2   
    11    10    13 2   
    12    11    12 1   
    13    12    15 1   
    14    13    14 1   
    15    13    16 1   
    16    15    16 2   
    17    15    17 1   
    18    16    19 1   
    19    18    19 1   
    20    19    20 1   
    21    19    21 1   
    22    21    22 1   
@<TRIPOS>SUBSTRUCTURE
     1 MOL         1 TEMP              0 ****  ****    0 ROOT
